Circuit: * C:\users\mateod\My Documents\Labs_Sintesis_Redes_Activas\Lab3_Diseño_Amp_Comp\2)VFA-CFA\amp_vfa_cfa.asc

WARNING: Less than two connections to node N005.  This node is used by RF.
Direct Newton iteration failed to find .op point.  (Use ".option noopiter" to skip.)
Starting Gmin stepping
Gmin = 10
Gmin = 1.07374
vernier = 0.5
vernier = 0.25
vernier = 0.125
vernier = 0.0625
Gmin = 1.08884
vernier = 0.03125
vernier = 0.015625
vernier = 0.0078125
vernier = 0.00390625
Gmin = 1.07828
vernier = 0.00195313
vernier = 0.000976563
vernier = 0.000488281
Gmin = 1.07644
Gmin = 0
Gmin stepping failed

Starting source stepping with srcstepmethod=0
Source Step = 3.0303%
Source Step = 33.3333%
Source Step = 63.6364%
Source Step = 93.9394%
Source stepping succeeded in finding the operating point.


Date: Sat Nov 22 13:43:16 2025
Total elapsed time: 0.553 seconds.

tnom = 27
temp = 27
method = trap
totiter = 2511
traniter = 0
tranpoints = 0
accept = 0
rejected = 0
matrix size = 100
fillins = 164
solver = Normal
Matrix Compiler1:     633 opcodes
Matrix Compiler2: 11.23 KB object code size  1.7/2.4/[0.9]

