LTspice 24.0.12 for Windows
Circuit: * C:\Users\franc\Documents\LTspice\Sintesis 2025\TP2\Caso 1.1 - LM741 - Bode.asc
Start Time: Thu Nov 20 20:36:27 2025
solver = Normal
Maximum thread count: 16
tnom = 27
temp = 27
method = modified trap
Direct Newton iteration for .op point succeeded.
Total elapsed time: 0.149 seconds.

