LTspice 24.0.12 for Windows
Circuit: * C:\Users\franc\Documents\LTspice\Sintesis 2025\TP2\Caso 1.1 - LM741 - Slew Rate.asc
Start Time: Thu Nov 20 19:27:11 2025
solver = Normal
Maximum thread count: 16
tnom = 27
temp = 27
method = modified trap
Direct Newton iteration for .op point succeeded.
Heightened Def Con from 5e-05 to 5e-05
Heightened Def Con from 5e-05 to 5.0003e-05
Heightened Def Con from 0.000171041 to 0.000171045
Total elapsed time: 0.164 seconds.

