Circuit: * C:\users\mateod\My Documents\Labs_Sintesis_Redes_Activas\Lab1_OA_Ideal\Circuito5 - Adicional\Relax_Osc_ad9066_asim.asc

Direct Newton iteration for .op point succeeded.

Date: Thu Nov 20 10:47:12 2025
Total elapsed time: 66.688 seconds.

tnom = 27
temp = 27
method = modified trap
totiter = 3053584
traniter = 3053540
tranpoints = 721437
accept = 538117
rejected = 183320
matrix size = 128
fillins = 132
solver = Normal
Thread vector: 12.0/7.8[2] 5.4/4.2[2] 1.6/2.6[1] 0.7/2.4[1]  2592/500
Matrix Compiler1: 12.19 KB object code size  5.5/3.3/[1.4]
Matrix Compiler2: 11.80 KB object code size  2.5/4.5/[0.8]

