Circuit: * C:\users\mateod\My Documents\Labs_Sintesis_Redes_Activas\Lab3_Diseño_Amp_Comp\1)VFA-VFA\amp_vfa_vfa.asc

Direct Newton iteration for .op point succeeded.

Date: Fri Nov 21 15:34:47 2025
Total elapsed time: 0.151 seconds.

tnom = 27
temp = 27
method = trap
totiter = 13
traniter = 0
tranpoints = 0
accept = 0
rejected = 0
matrix size = 70
fillins = 103
solver = Normal
Matrix Compiler1:     497 opcodes
Matrix Compiler2: 7.63 KB object code size
