Circuit: * C:\users\mateod\My Documents\Labs_Sintesis_Redes_Activas\Lab3_Diseño_Amp_Comp\3)VFA-CFA-Comp\amp_vfa_cfa_comp.asc

Direct Newton iteration failed to find .op point.  (Use ".option noopiter" to skip.)
Starting Gmin stepping
Gmin = 10
vernier = 0.5
vernier = 0.666667
Gmin = 3.04418
vernier = 0.888888
vernier = 0.444444
vernier = 0.222222
Gmin = 1.26759
vernier = 0.111111
vernier = 0.0555555
Gmin = 1.06205
vernier = 0.0277778
vernier = 0.0138889
Gmin = 1.04016
vernier = 0.0185185
vernier = 0.00925925
vernier = 0.00462963
Gmin = 1.02701
vernier = 0.00617283
vernier = 0.00308642
Gmin = 1.01952
vernier = 0.00411522
vernier = 0.00205761
vernier = 0.00274348
vernier = 0.00137174
Gmin = 1.0162
vernier = 0.00182899
vernier = 0.000914493
Gmin = 1.01307
vernier = 0.00121932
Gmin = 1.01037
vernier = 0.000609662
vernier = 0.000812882
Gmin = 1.00909
vernier = 0.00108384
vernier = 0.000541921
vernier = 0.000722562
Gmin = 1.00782
vernier = 0.000541921
vernier = 0.000722562
vernier = 0.000541921
Gmin = 1.00704
vernier = 0.000406441
vernier = 0.000541921
vernier = 0.000406441
Gmin = 1.00643
Gmin = 0
Gmin stepping failed

Starting source stepping with srcstepmethod=0
Source Step = 3.0303%
Source Step = 33.3333%
Source Step = 63.6364%
Source Step = 88.6364%
Source Step = 90.1634%
Source Step = 90.1929%
Source Step = 90.2225%
Source Step = 90.2521%
Source Step = 90.2817%
vernier = 0.00146484
Source Step = 90.3158%
Source Step = 90.3601%
Source Step = 90.4045%
Source Step = 90.4489%
Source Step = 90.4933%
vernier = 0.00219727
Source Step = 90.5421%
Source Step = 90.6087%
Source Step = 90.6753%
Source Step = 90.7419%
Source Step = 90.8085%
vernier = 0.0032959
Source Step = 90.8784%
Source Step = 90.9783%
Source Step = 91.0781%
Source Step = 91.178%
Source Step = 91.2779%
Source Step = 91.3778%
vernier = 0.00494385
Source Step = 91.5276%
Source Step = 91.6774%
Source Step = 91.8272%
Source Step = 91.977%
Source Step = 92.1268%
vernier = 0.00741577
Source Step = 92.3441%
Source Step = 92.5688%
Source Step = 92.7935%
Source Step = 93.0182%
Source Step = 93.2429%
vernier = 0.0111237
Source Step = 93.5576%
Source Step = 93.8946%
Source Step = 94.2317%
Source Step = 94.5688%
Source Step = 94.9059%
vernier = 0.0166855
Source Step = 95.3609%
Source Step = 95.8666%
Source Step = 96.3722%
Source Step = 96.8778%
Source Step = 97.3834%
vernier = 0.0250282
Source Step = 98.0407%
Source Step = 98.7992%
Source Step = 99.5576%
Source stepping succeeded in finding the operating point.


Date: Sat Nov 22 13:48:43 2025
Total elapsed time: 1.384 seconds.

tnom = 27
temp = 27
method = trap
totiter = 11179
traniter = 0
tranpoints = 0
accept = 0
rejected = 0
matrix size = 99
fillins = 318
solver = Normal
Matrix Compiler1:    1695 opcodes
Matrix Compiler2: 13.42 KB object code size  1.4/2.9/[0.9]

